*Heading
 Bulk indentation R=15um with subroutine 
** Job name: bulk-indent Model name: Quasi-static1
** Generated by: Abaqus/CAE 6.14-2
*Preprint, echo=NO, model=NO, history=NO, contact=NO
**
** PARTS
**
*Part, name=Indenter
*Node
      1,           0., -0.00308471429
      2, 0.0142587461, -0.00465705618
      3,           0., 0.0149999997
      4,           0., -0.0149999997
      5,           0., 0.0148070576
      6,           0., 0.0146147171
      7,           0., 0.0144227678
      8,           0., 0.0142310513
      9,           0., 0.0140394578
     10,           0., 0.0138479257
     11,           0., 0.0136564188
     12,           0., 0.0134649174
     13,           0., 0.0132734142
     14,           0., 0.0130819036
     15,           0., 0.0128903827
     16,           0., 0.0126988515
     17,           0., 0.0125073092
     18,           0., 0.0123157566
     19,           0.,  0.012124192
     20,           0., 0.0119326161
** ... 13759 like lines cut
*Element, type=CAX4H
    1,     5,     6,   739,   738
    2,     6,     7,   740,   739
    3,     7,     8,   741,   740
    4,     8,     9,   742,   741
    5,     9,    10,   743,   742
    6,    10,    11,   744,   743
    7,    11,    12,   745,   744
    8,    12,    13,   746,   745
    9,    13,    14,   747,   746
   10,    14,    15,   748,   747
   11,    15,    16,   749,   748
   12,    16,    17,   750,   749
   13,    17,    18,   751,   750
   14,    18,    19,   752,   751
   15,    19,    20,   753,   752
   16,    20,    21,   754,   753
   17,    21,    22,   755,   754
   18,    22,    23,   756,   755
   19,    23,    24,   757,   756
   20,    24,    25,   758,   757
** ... 13530 like lines cut
*Nset, nset=_PickedSet5, internal, generate
     1,  13779,      1
*Elset, elset=_PickedSet5, internal, generate
     1,  13550,      1
** Section: indenter
*Solid Section, elset=_PickedSet5, material=DIAMOND
,
*End Part
**  
*Part, name=Substrate
*Node
      1,           0.,           0.
      2, 0.00361111108,           0.
      3, 0.00722222216,           0.
      4, 0.0108333332,           0.
      5, 0.0144444443,           0.
      6, 0.0180555563,           0.
      7, 0.0216666665,           0.
      8, 0.0252777785,           0.
      9, 0.0288888887,           0.
     10, 0.0324999988,           0.
     11, 0.0361111127,           0.
     12, 0.0397222228,           0.
     13,  0.043333333,           0.
     14, 0.0469444431,           0.
     15,  0.050555557,           0.
     16, 0.0541666672,           0.
     17, 0.0577777773,           0.
     18, 0.0613888875,           0.
     19, 0.0649999976,           0.
     20, 0.0686111078,           0.
** ... 5090 like lines cut
*Element, type=CAX4R
   1,    1,    2,   75,   74
   2,    2,    3,   76,   75
   3,    3,    4,   77,   76
   4,    4,    5,   78,   77
   5,    5,    6,   79,   78
   6,    6,    7,   80,   79
   7,    7,    8,   81,   80
   8,    8,    9,   82,   81
   9,    9,   10,   83,   82
  10,   10,   11,   84,   83
  11,   11,   12,   85,   84
  12,   12,   13,   86,   85
  13,   13,   14,   87,   86
  14,   14,   15,   88,   87
  15,   15,   16,   89,   88
  16,   16,   17,   90,   89
  17,   17,   18,   91,   90
  18,   18,   19,   92,   91
  19,   19,   20,   93,   92
  20,   20,   21,   94,   93
** ... 4948 like lines cut
*Nset, nset=_PickedSet26, internal, generate
    1,  5110,     1
*Elset, elset=_PickedSet26, internal, generate
    1,  4968,     1
** Section: glass section
*Solid Section, elset=_PickedSet26, material=GlASS
,
*End Part
**  
*Part, name="bulk(wide)-small mesh"
*Node
      1,  0.219999999,    6.1935854
      2,           0.,    6.1935854
      3,  4.65660982e-11,   6.14499998
      4,  0.219999999,   6.14499998
      5, 0.0199999996,   6.21999979
      6, 0.0199999996,   6.23750019
      7,           0.,   6.23750019
      8,           0.,   6.21999979
      9, 0.0414570905,   6.23750019
     10, 0.0414570905,   6.21999979
     11,  0.075000003,   6.21999979
     12,  0.075000003,   6.23750019
     13, 0.0199999996,         6.25
     14,           0.,         6.25
     15,  0.075000003,         6.25
     16, 0.0772687271,         6.25
     17, 0.0772687271,   6.21799994
     18,           0.,   6.21799994
     19,           0.,   6.19657707
     20,  0.219999999,         6.25
** ... 15496 like lines cut
*Element, type=CAX4H
  1,    1,   23, 1188,  130
  2,   23,   24, 1189, 1188
  3,   24,   25, 1190, 1189
  4,   25,   26, 1191, 1190
  5,   26,   27, 1192, 1191
  6,   27,   28, 1193, 1192
  7,   28,   29, 1194, 1193
  8,   29,   30, 1195, 1194
  9,   30,   31, 1196, 1195
 10,   31,   32, 1197, 1196
 11,   32,   33, 1198, 1197
 12,   33,   34, 1199, 1198
 13,   34,   35, 1200, 1199
 14,   35,   36, 1201, 1200
 15,   36,   37, 1202, 1201
 16,   37,   38, 1203, 1202
 17,   38,   39, 1204, 1203
 18,   39,   40, 1205, 1204
 19,   40,   41, 1206, 1205
 20,   41,   42, 1207, 1206
** ... 14887 like lines cut
*Element, type=CAX3
4392, 5644, 5569, 5570
4393, 5710, 5292, 5733
4394, 5583, 5320, 5424
4395, 6142, 6140, 5444
4396, 6145, 5551, 5560
4397, 5712, 5674, 5641
4398, 5826, 6166, 5779
4399, 5787, 5720, 5273
4400, 5729, 5668, 5663
4401,  572, 6126, 6023
4402, 5791, 5295, 5868
4403, 6133, 5751, 5734
4404, 6182, 5932, 6181
4405, 5935, 5916, 5888
4406, 5971, 5996, 5924
4407, 6007, 5975, 5953
4408, 5797, 6047,   58
4409, 6174, 5979, 5968
4410, 6126,  572,   19
4411, 6063, 6006, 5949
** ... 415 like lines cut
*Nset, nset=_PickedSet13, internal, generate
     1,  15516,      1
*Elset, elset=_PickedSet13, internal, generate
     1,  15342,      1
*Elset, elset="_bulk(tin) top_S3", internal
 2977, 2978, 2979, 2980, 2981, 2982, 2983, 2984, 2985, 2986, 2987, 2988, 2989, 2990, 2991, 2992
 2993, 2994, 2995, 2996, 2997, 2998, 2999, 3000, 3001, 3002, 3003, 3004, 3005, 3006, 3007, 3008
 3009, 3010, 3011, 3012, 3013, 3014, 3015, 3016, 4337, 4338, 4339, 4340, 4341, 4342, 4343, 4344
 4345, 4346, 4347, 4348, 4349, 4350, 4351, 4352, 4353, 4354, 4355, 4356, 4357, 4358, 4359, 4360
 4361, 4362, 4363, 4364, 4365, 4366, 4367, 4368, 4369, 4370, 4371, 4372, 4373, 4374, 4375, 4376
 4377, 4378, 4379, 4380, 4381, 4382, 4383, 4384, 4385, 4386, 4387, 4388, 4389, 4390, 4391, 4425
 4427, 4467, 4473, 4479, 4586, 4615, 4616, 4618, 4619, 4620, 4621, 4622, 4623, 4624, 4625, 4626
 4627,
*Elset, elset="_bulk(tin) top_S1", internal
 4489, 4493, 4497, 4511, 4568, 4587, 4588, 4589, 4590, 4591, 4592, 4593, 4594, 4595, 4596, 4597
 4598, 4599, 4600, 4601, 4602, 4603, 4604, 4605, 4606, 4607, 4608, 4609, 4610, 4611, 4612, 4613
 4614, 4617, 4631, 4821
*Elset, elset="_bulk(tin) top_S4", internal
 4585,
*Elset, elset="_bulk(tin) top_S2", internal
 4929, 5804, 6093
*Surface, type=ELEMENT, name="bulk(tin) top"
"_bulk(tin) top_S3", S3
"_bulk(tin) top_S1", S1
"_bulk(tin) top_S4", S4
"_bulk(tin) top_S2", S2
** Section: UMAT section
*Solid Section, elset=_PickedSet13, material=TANIA
,
*End Part
**  
**
** ASSEMBLY
**
*Assembly, name=Assembly
**  
*Instance, name=Indenter-1, part=Indenter
          0.,       0.0075,           0.
*End Instance
**  
*Instance, name=Substrate-1, part=Substrate
          0.,      -3.2575,           0.
*End Instance
**  
*Instance, name="bulk(wide)-small mesh-1", part="bulk(wide)-small mesh"
          0.,      -6.2575,           0.
*End Instance
**  
*Node
      1,  4.59242559e-19,  0.014999914
*Nset, nset=_PICKEDSET32, internal
 1,
*Nset, nset=_PICKEDSET36, internal
 1,
*Nset, nset=_PICKEDSET209, internal
 1,
*Nset, nset=_PICKEDSET210, internal
 1,
*Nset, nset=_PickedSet25, internal
 1,
*Nset, nset=_PickedSet26, internal
 1,
*Nset, nset=_PickedSet51, internal
 1,
*Nset, nset=_PickedSet52, internal, instance=Indenter-1, generate
     1,  13779,      1
*Elset, elset=_PickedSet52, internal, instance=Indenter-1, generate
     1,  13550,      1
*Nset, nset=_PickedSet154, internal, instance=Substrate-1, generate
  1,  73,   1
*Elset, elset=_PickedSet154, internal, instance=Substrate-1, generate
  1,  72,   1
*Nset, nset=_PickedSet278, internal, instance="bulk(wide)-small mesh-1"
   3,   7,   8,  14,  21, 187, 188, 189, 190, 191, 192, 193, 194, 195, 196, 197
 198, 199, 200, 201, 202, 203, 406, 407, 408, 409, 410, 411, 412, 413, 414, 415
 416, 417, 418, 419, 420, 421, 422, 423, 424, 425, 426, 427, 428, 429, 671, 672
 673, 674, 675, 676, 677, 678, 679, 680, 681, 682, 683, 684, 685, 686, 687, 688
 689, 690, 691, 692, 693, 694, 695, 696, 697, 698, 699, 700, 701, 702, 703, 704
 705, 706, 707, 708, 709, 710, 711, 712, 713, 714, 715, 716, 717, 718, 719, 720
 721, 722, 723, 724, 725, 726, 727, 728, 729, 730, 731, 732, 733, 734, 735, 736
 737, 738, 739, 740, 741, 742, 743, 744, 745, 746, 747, 748, 749, 750, 751, 752
 753, 754, 755, 756, 757, 758, 759, 760, 761, 762, 763, 764, 765, 766, 767, 768
 769, 770, 771, 772, 773, 774, 775, 776, 777, 778, 779, 780, 781, 782, 783, 784
 785, 786, 787, 788, 789, 790, 791, 792, 793, 794, 795, 796, 797, 798, 799, 800
 801, 802, 803, 804, 805, 806, 807, 808, 809, 810, 811, 812, 813, 814, 815, 816
 817, 818, 819, 820, 821, 822, 823, 824, 825, 826, 827, 828, 829, 830, 831, 832
 833, 834, 835, 836, 837, 838, 839, 840, 841, 842, 843, 844, 845, 846, 847, 848
 849, 850, 851, 852, 853, 854, 855, 856, 857, 858, 859, 860, 861, 862, 863, 864
 865, 866, 867, 868, 869, 870, 871, 872, 873, 874, 875, 876, 877, 878, 879, 880
 881, 882, 883, 884, 885, 886, 887, 888, 889, 890, 891, 892, 893, 894, 895, 896
 897, 898, 899, 900, 901, 902, 903, 904, 905, 906, 907, 908, 909, 910
*Elset, elset=_PickedSet278, internal, instance="bulk(wide)-small mesh-1"
  1387,  1388,  1389,  1390,  1391,  1392,  1393,  1394,  1395,  1396,  1397,  1398,  1399,  1400,  1401,  1402
  1403,  1404,  2017,  2057,  2097,  2137,  2177,  2217,  2257,  2297,  2337,  2377,  2417,  2457,  2497,  2537
  2577,  2617,  2657,  2697,  2737,  2777,  2817,  2857,  2897,  2937,  2977,  6222,  6260,  6298,  6336,  6374
  6412,  6450,  6488,  6526,  6564,  6602,  6640,  6678,  6716,  6754,  6792,  6830,  6868,  6906,  6944,  6982
  7020,  7058,  7096,  7134,  7172,  7210,  7248,  7286,  7324,  7362,  7400,  7438,  7476,  7514,  7552,  7590
  7628,  7666,  7704,  7742,  7780,  7818,  7856,  7894,  7932,  7970,  8008,  8046,  8084,  8122,  8160,  8198
  8236,  8274,  8312,  8350,  8388,  8426,  8464,  8502,  8540,  8578,  8616,  8654,  8692,  8730,  8768,  8806
  8844,  8882,  8920,  8958,  8996,  9034,  9072,  9110,  9148,  9186,  9224,  9262,  9300,  9338,  9376,  9414
  9452,  9490,  9528,  9566,  9604,  9642,  9680,  9718,  9756,  9794,  9832,  9870,  9908,  9946,  9984, 10022
 10060, 10098, 10136, 10174, 10212, 10250, 10288, 10326, 10364, 10402, 10440, 10478, 10516, 10554, 10592, 10630
 10668, 10706, 10744, 10782, 10820, 10858, 10896, 10934, 10972, 11010, 11048, 11086, 11124, 11162, 11200, 11238
 11276, 11314, 11352, 11390, 11428, 11466, 11504, 11542, 11580, 11618, 11656, 11694, 11732, 11770, 11808, 11846
 11884, 11922, 11960, 11998, 12036, 12074, 12112, 12150, 12188, 12226, 12264, 12302, 12340, 12378, 12416, 12454
 12492, 12530, 12568, 12606, 12644, 12682, 12720, 12758, 12796, 12834, 12872, 12910, 12948, 12986, 13024, 13062
 13100, 13138, 13176, 13214, 13252, 13290, 13328, 13366, 13404, 13442, 13480, 13518, 13556, 13594, 13632, 13670
 13708, 13746, 13784, 13822, 13860, 13898, 13936, 13974, 14012, 14050, 14088, 14126, 14164, 14202, 14240, 14278
 14316, 14354, 14392, 14430, 14468, 14506, 14544, 14582, 14620, 14658, 14696, 14734, 14772, 14810, 14848, 14886
 14924, 14962, 15000, 15038, 15076, 15114, 15152, 15190, 15228, 15266, 15304, 15342
*Elset, elset=_fine_indenter_S2, internal, instance=Indenter-1
  8836,  8837,  8838,  8839,  8840,  8841,  8842,  8843,  8844,  8845,  8846,  8847,  8848,  8849,  8850,  8851
  8852,  8853,  8854,  8855,  8856,  8857,  8858,  8859,  8860,  8861,  8862,  8863,  8864,  8865,  8866,  8867
  8868,  8869,  8870,  8871,  8872,  8873,  8874,  8875,  8876,  8877,  8878,  8879,  8880,  8881,  8882,  8883
  8884,  8885,  8886,  8887,  8888,  8889,  8890,  8891,  8892,  8893,  8894,  8895,  8896,  8897,  8898,  8899
  8900,  8901,  8902,  8903,  8904,  8905,  8906,  8907,  8908,  8909,  8910,  8911,  8912,  8913,  8914,  8915
  8916,  8917,  8918,  8919,  8920,  8921,  8922,  8923,  8924,  8925,  8926,  8927,  8928, 12776, 12785, 12794
 12803, 12812, 12821, 12830, 12839, 12848, 12857, 12866, 12875, 12884, 12893, 12902, 12911, 12920, 12929, 12938
 12947, 12956, 12965, 12974, 12983, 12992, 13001, 13010, 13019, 13028, 13037, 13046, 13055, 13064, 13073, 13082
 13091, 13100, 13109, 13118, 13127, 13136, 13145, 13154, 13163, 13172, 13181, 13190, 13199, 13208, 13217, 13226
 13235, 13244, 13253, 13262, 13271, 13280, 13289, 13298, 13307, 13316, 13325, 13334, 13343, 13352, 13361, 13370
 13379, 13388, 13397, 13406, 13415, 13424, 13433, 13442, 13451, 13460, 13469, 13478, 13487, 13496, 13505, 13514
 13523, 13532, 13541, 13550
*Elset, elset=_fine_indenter_S1, internal, instance=Indenter-1, generate
 8929,  9062,     1
*Surface, type=ELEMENT, name=fine_indenter
_fine_indenter_S2, S2
_fine_indenter_S1, S1
*Elset, elset=__PickedSurf47_S3, internal, instance=Substrate-1, generate
 4897,  4968,     1
*Surface, type=ELEMENT, name=_PickedSurf47, internal
__PickedSurf47_S3, S3
*Elset, elset=__PickedSurf277_S3, internal, instance="bulk(wide)-small mesh-1", generate
 15305,  15342,      1
*Surface, type=ELEMENT, name=_PickedSurf277, internal
__PickedSurf277_S3, S3
** Constraint: RigidBody-1
*Rigid Body, ref node=_PickedSet51, elset=_PickedSet52
** Constraint: sample to substrate
*Tie, name="sample to substrate", adjust=yes
_PickedSurf277, _PickedSurf47
*End Assembly
** 
** MATERIALS
** 
*Material, name=DIAMOND
*Density
 2.5e-09,
*Elastic
 1.22e+06, 0.2
*Material, name=GLASS
*Density
 2.5e-09,
*Elastic
70000., 0.2
**  Hyper elastic PDMS behaviour using the Neo Hookean model
** 
*Material, name=HYPERLEASTICPDMS
*Density
 9.7e-13,
*Hyperelastic, neo hooke
 0.06002, 0.01667
**  Elasto-plastic behaviour only, not taking into account viscoelasticity
*Material, name=PDMS
*Density
 9.7e-13,
*Elastic
 0.36, 0.5
*Plastic
 2.24,0.
**  Viscoelastic material based on Standadr Solid Model, parameters obtained 
** from
**  indentation tests and analytical solutions.
*Material, name=TANIA
*Density
 9.7e-13,
*User Material, constants=10
0.,0.,0.,0.,0.,0.,0.,0.
0.,0.
*Material, name=VISHAY
*Density
 1.2e-09,
*Elastic
4., 0.5
*Material, name="nylon 66"
*Density
 1.183e-06,
*Elastic
300., 0.4
** 
** INTERACTION PROPERTIES
** 
*Surface Interaction, name=CONTACT
1.,
*Friction
0.,
** 
** BOUNDARY CONDITIONS
** 
** Name: Base Type: Symmetry/Antisymmetry/Encastre
*Boundary
_PickedSet154, ENCASTRE
** Name: Indenter mov Type: Displacement/Rotation
*Boundary
_PickedSet25, 1, 1
_PickedSet25, 6, 6
** Name: Roller Type: Displacement/Rotation
*Boundary
_PickedSet278, 1, 1
** 
** INTERACTIONS
** 
** Interaction: contact-ss
*Contact Pair, interaction=CONTACT, type=SURFACE TO SURFACE
"bulk(wide)-small mesh-1"."bulk(tin) top", fine_indenter
** ----------------------------------------------------------------
** 
** STEP: Indentation_visco
** 
*Step, name=Indentation_visco, nlgeom=YES, amplitude=RAMP, inc=2000
*Visco, cetol=5e-07
0.001, 4.075, 1e-10, 0.01
** 
** LOADS
** 
** Name: Indenter load   Type: Concentrated force
*Cload
_PickedSet26, 2, -9.5e-06
** 
** INTERACTIONS
** 
** Contact Controls for Interaction: contact-ss
*Contact Controls, master=fine_indenter, slave="bulk(wide)-small mesh-1"."bulk(tin) top", reset
*Contact Controls, master=fine_indenter, slave="bulk(wide)-small mesh-1"."bulk(tin) top", stabilize=0.001
** 
** OUTPUT REQUESTS
** 
*Restart, write, frequency=0
** 
** FIELD OUTPUT: F-Output-1
** 
*Output, field
*Node Output
U, 
*Element Output, directions=YES
LE, MISES, S
*Contact Output
CFORCE, CNAREA
** 
** HISTORY OUTPUT: H-Output-1
** 
*Output, history
*Contact Output
CAREA, CFN1, CFN2, CFN3, CFNM
*End Step
** ----------------------------------------------------------------
** 
** STEP: Holding_visco
** 
*Step, name=Holding_visco, nlgeom=YES, amplitude=RAMP, inc=1000
*Visco, cetol=5e-07
0.001, 2.1019, 1e-10, 0.1
** 
** OUTPUT REQUESTS
** 
*Restart, write, frequency=0
** 
** FIELD OUTPUT: F-Output-1
** 
*Output, field
*Node Output
U, 
*Element Output, directions=YES
LE, MISES, S
*Contact Output
CFORCE, CNAREA
** 
** HISTORY OUTPUT: H-Output-1
** 
*Output, history
*Contact Output
CAREA, CFN1, CFN2, CFN3, CFNM
*End Step
